opendss_networks/LV27_23bus/lines.dss
new line.L_81 lineCode=ughv_400al_triplex_ug_4w_bundled bus1=B1681 bus2=B2095 length=0.000255748683551 units=km phases=4
new line.L_294 lineCode=ughv_400al_triplex_ug_4w_bundled bus1=B1681 bus2=B887 length=0.000244629175110 units=km phases=4
new line.L_404 lineCode=uglv_240al_xlpe/nyl/pvc_ug_4w_bundled bus1=B2759 bus2=B737 length=0.0657250559489 units=km phases=4
new line.L_1133 lineCode=ugsc_16cu_xlpe/nyl/pvc_ug_4w_bundled bus1=B2759 bus2=B2005 length=0.0109162972160 units=km phases=4
new line.L_1360 lineCode=ughv_400al_triplex_ug_4w_bundled bus1=B1681 bus2=B9 length=0.000354719843688 units=km phases=4
new line.L_1560 lineCode=uglv_240al_xlpe/nyl/pvc_ug_4w_bundled bus1=B2759 bus2=B76 length=0.0418267377388 units=km phases=4
new line.L_1884 lineCode=ughv_400al_triplex_ug_4w_bundled bus1=B1681 bus2=B551 length=0.000361602462655 units=km phases=4
new line.L_2901 lineCode=ugsc_16cu_xlpe/nyl/pvc_ug_4w_bundled bus1=B76 bus2=B2775 length=0.0205967891647 units=km phases=4
new line.L_3285 lineCode=ughv_400al_triplex_ug_4w_bundled bus1=B1681 bus2=B1265 length=0.000542216997055 units=km phases=4
new line.L_3609 lineCode=ugsc_16cu_xlpe/nyl/pvc_ug_4w_bundled bus1=B76 bus2=B2708 length=0.0699572191333 units=km phases=4
new line.L_3669 lineCode=uglv_240al_xlpe/nyl/pvc_ug_4w_bundled bus1=B76 bus2=B621 length=0.00333474418677 units=km phases=4
new line.L_3923 lineCode=ugsc_16cu_xlpe/nyl/pvc_ug_4w_bundled bus1=B2223 bus2=B1595 length=0.0694592476292 units=km phases=4
new line.L_3990 lineCode=ughv_400al_triplex_ug_4w_bundled bus1=B194 bus2=B1595 length=0.000255748683551 units=km phases=4
new line.L_4002 lineCode=ughv_400al_triplex_ug_4w_bundled bus1=B2879 bus2=B737 length=0.000800000000000 units=km phases=4
new line.L_4180 lineCode=uglv_240al_xlpe/nyl/pvc_ug_4w_bundled bus1=B2759 bus2=B3316 length=0.0387893561891 units=km phases=4
new line.L_4467 lineCode=ughv_400al_triplex_ug_4w_bundled bus1=B167 bus2=B1325 length=7.47735676854e-05 units=km phases=4
